Version 4
SHEET 1 1760 15076
WIRE -4928 -2368 -5104 -2368
WIRE -1088 -2368 -4928 -2368
WIRE -1152 -2320 -4544 -2320
WIRE 96 -2240 -1440 -2240
WIRE 64 -2224 -1424 -2224
WIRE 32 -2192 -1408 -2192
WIRE 0 -2160 -1376 -2160
WIRE -2768 -2032 -3648 -2032
WIRE -2432 -2032 -2768 -2032
WIRE -4096 -1968 -4384 -1968
WIRE -4032 -1968 -4096 -1968
WIRE -3760 -1968 -4032 -1968
WIRE -3216 -1968 -3504 -1968
WIRE -3152 -1968 -3216 -1968
WIRE -2880 -1968 -3152 -1968
WIRE -608 -1968 -752 -1968
WIRE -512 -1968 -608 -1968
WIRE -416 -1968 -512 -1968
WIRE -320 -1968 -416 -1968
WIRE -512 -1936 -512 -1968
WIRE -4032 -1888 -4032 -1968
WIRE -3152 -1888 -3152 -1968
WIRE -240 -1872 -448 -1872
WIRE -5232 -1840 -5408 -1840
WIRE -5200 -1840 -5232 -1840
WIRE -4800 -1840 -5200 -1840
WIRE -4768 -1840 -4800 -1840
WIRE -4384 -1840 -4384 -1888
WIRE -4096 -1840 -4096 -1968
WIRE -4032 -1840 -4096 -1840
WIRE -3504 -1840 -3504 -1888
WIRE -3216 -1840 -3216 -1968
WIRE -3152 -1840 -3216 -1840
WIRE -320 -1840 -320 -1968
WIRE -320 -1840 -368 -1840
WIRE -832 -1824 -896 -1824
WIRE -752 -1824 -752 -1968
WIRE -752 -1824 -832 -1824
WIRE -5408 -1808 -5408 -1840
WIRE -3952 -1808 -3984 -1808
WIRE -3072 -1808 -3104 -1808
WIRE -512 -1808 -512 -1856
WIRE -832 -1792 -832 -1824
WIRE -368 -1792 -368 -1840
WIRE -320 -1792 -368 -1792
WIRE -4032 -1760 -4032 -1792
WIRE -4032 -1760 -4160 -1760
WIRE -3152 -1760 -3152 -1792
WIRE -3152 -1760 -3280 -1760
WIRE -240 -1760 -240 -1872
WIRE -240 -1760 -272 -1760
WIRE -5200 -1744 -5200 -1840
WIRE -896 -1744 -896 -1824
WIRE -832 -1744 -896 -1744
WIRE -3952 -1728 -3952 -1808
WIRE -3904 -1728 -3952 -1728
WIRE -3072 -1728 -3072 -1808
WIRE -3024 -1728 -3072 -1728
WIRE -4768 -1712 -4768 -1840
WIRE -4032 -1712 -4032 -1760
WIRE -3152 -1712 -3152 -1760
WIRE -640 -1712 -784 -1712
WIRE -544 -1712 -640 -1712
WIRE -448 -1712 -448 -1872
WIRE -448 -1712 -544 -1712
WIRE -320 -1712 -320 -1744
WIRE -320 -1712 -384 -1712
WIRE -5232 -1696 -5232 -1840
WIRE -5200 -1696 -5232 -1696
WIRE -5408 -1680 -5408 -1728
WIRE -384 -1680 -384 -1712
WIRE -384 -1680 -464 -1680
WIRE -320 -1680 -320 -1712
WIRE -240 -1680 -240 -1760
WIRE -128 -1680 -240 -1680
WIRE -5104 -1664 -5104 -2368
WIRE -5104 -1664 -5152 -1664
WIRE -4800 -1664 -4800 -1840
WIRE -4768 -1664 -4800 -1664
WIRE -4032 -1664 -4064 -1664
WIRE -3648 -1664 -3648 -2032
WIRE -3152 -1664 -3184 -1664
WIRE -2768 -1664 -2768 -2032
WIRE -2432 -1648 -2432 -2032
WIRE -2016 -1648 -2432 -1648
WIRE -832 -1648 -832 -1696
WIRE -4688 -1632 -4720 -1632
WIRE -3952 -1632 -3952 -1728
WIRE -3952 -1632 -3984 -1632
WIRE -3072 -1632 -3072 -1728
WIRE -3072 -1632 -3104 -1632
WIRE -320 -1632 -352 -1632
WIRE -5200 -1600 -5200 -1648
WIRE -4064 -1600 -4064 -1664
WIRE -4032 -1600 -4032 -1616
WIRE -4032 -1600 -4064 -1600
WIRE -3184 -1600 -3184 -1664
WIRE -3152 -1600 -3152 -1616
WIRE -3152 -1600 -3184 -1600
WIRE -896 -1600 -896 -1744
WIRE -832 -1600 -896 -1600
WIRE -240 -1600 -240 -1680
WIRE -240 -1600 -272 -1600
WIRE -4768 -1584 -4768 -1616
WIRE -4768 -1584 -4864 -1584
WIRE -4032 -1584 -4032 -1600
WIRE -3760 -1584 -3760 -1968
WIRE -3680 -1584 -3680 -1616
WIRE -3680 -1584 -3760 -1584
WIRE -3152 -1584 -3152 -1600
WIRE -2880 -1584 -2880 -1968
WIRE -2800 -1584 -2800 -1616
WIRE -2800 -1584 -2880 -1584
WIRE -1824 -1584 -1936 -1584
WIRE -1776 -1584 -1824 -1584
WIRE -1632 -1584 -1776 -1584
WIRE -1600 -1584 -1632 -1584
WIRE -1776 -1568 -1776 -1584
WIRE -1600 -1568 -1600 -1584
WIRE -624 -1568 -784 -1568
WIRE -448 -1568 -624 -1568
WIRE -352 -1568 -352 -1632
WIRE -320 -1568 -320 -1584
WIRE -320 -1568 -352 -1568
WIRE -5232 -1552 -5232 -1696
WIRE -5200 -1552 -5232 -1552
WIRE -4768 -1552 -4768 -1584
WIRE -4224 -1552 -4480 -1552
WIRE -4160 -1552 -4160 -1760
WIRE -4160 -1552 -4224 -1552
WIRE -3344 -1552 -3456 -1552
WIRE -3280 -1552 -3280 -1760
WIRE -3280 -1552 -3344 -1552
WIRE -4096 -1536 -4096 -1840
WIRE -3968 -1536 -4096 -1536
WIRE -3904 -1536 -3904 -1728
WIRE -3808 -1536 -3904 -1536
WIRE -3728 -1536 -3728 -1616
WIRE -3728 -1536 -3808 -1536
WIRE -3632 -1536 -3632 -1616
WIRE -3552 -1536 -3632 -1536
WIRE -3216 -1536 -3216 -1840
WIRE -3088 -1536 -3216 -1536
WIRE -3024 -1536 -3024 -1728
WIRE -2928 -1536 -3024 -1536
WIRE -2848 -1536 -2848 -1616
WIRE -2848 -1536 -2928 -1536
WIRE -2176 -1536 -2288 -1536
WIRE -2096 -1536 -2176 -1536
WIRE -1936 -1536 -1936 -1584
WIRE -1936 -1536 -2096 -1536
WIRE -320 -1536 -320 -1568
WIRE -5040 -1520 -5152 -1520
WIRE -4864 -1520 -4864 -1584
WIRE -4864 -1520 -5040 -1520
WIRE -4688 -1520 -4688 -1632
WIRE -4544 -1520 -4544 -2320
WIRE -4544 -1520 -4688 -1520
WIRE -1824 -1520 -1824 -1584
WIRE -1776 -1520 -1824 -1520
WIRE -1632 -1520 -1632 -1584
WIRE -1600 -1520 -1632 -1520
WIRE -912 -1520 -976 -1520
WIRE -832 -1520 -832 -1552
WIRE -832 -1520 -912 -1520
WIRE -736 -1520 -832 -1520
WIRE -4768 -1504 -4800 -1504
WIRE -4096 -1504 -4096 -1536
WIRE -4000 -1504 -4096 -1504
WIRE -3664 -1504 -3680 -1504
WIRE -3216 -1504 -3216 -1536
WIRE -3120 -1504 -3216 -1504
WIRE -2784 -1504 -2800 -1504
WIRE -2752 -1504 -2752 -1616
WIRE -2624 -1504 -2752 -1504
WIRE -2288 -1504 -2288 -1536
WIRE -912 -1504 -912 -1520
WIRE -736 -1504 -736 -1520
WIRE -4224 -1488 -4224 -1552
WIRE -4048 -1488 -4080 -1488
WIRE -3808 -1488 -3808 -1536
WIRE -3664 -1488 -3664 -1504
WIRE -3344 -1488 -3344 -1552
WIRE -3168 -1488 -3200 -1488
WIRE -2928 -1488 -2928 -1536
WIRE -2784 -1488 -2784 -1504
WIRE -1696 -1488 -1728 -1488
WIRE -1520 -1488 -1552 -1488
WIRE -976 -1488 -976 -1520
WIRE -976 -1488 -1520 -1488
WIRE -5296 -1472 -6784 -1472
WIRE -5200 -1472 -5200 -1504
WIRE -5200 -1472 -5296 -1472
WIRE -5120 -1472 -5200 -1472
WIRE -4688 -1472 -4688 -1520
WIRE -4688 -1472 -4720 -1472
WIRE -3968 -1456 -3968 -1536
WIRE -3968 -1456 -4000 -1456
WIRE -3088 -1456 -3088 -1536
WIRE -3088 -1456 -3120 -1456
WIRE -1696 -1456 -1696 -1488
WIRE -1568 -1456 -1696 -1456
WIRE -912 -1456 -944 -1456
WIRE -736 -1456 -800 -1456
WIRE -5104 -1440 -5104 -1664
WIRE -5104 -1440 -5248 -1440
WIRE -4800 -1440 -4800 -1504
WIRE -4768 -1440 -4768 -1456
WIRE -4768 -1440 -4800 -1440
WIRE -448 -1440 -448 -1568
WIRE -224 -1440 -448 -1440
WIRE -5296 -1424 -5296 -1472
WIRE -5120 -1424 -5120 -1472
WIRE -4768 -1424 -4768 -1440
WIRE -3728 -1424 -3728 -1536
WIRE -3680 -1424 -3680 -1504
WIRE -3632 -1424 -3632 -1536
WIRE -2848 -1424 -2848 -1536
WIRE -2800 -1424 -2800 -1504
WIRE -2752 -1424 -2752 -1504
WIRE -2016 -1424 -2016 -1648
WIRE -1776 -1424 -1776 -1472
WIRE -1776 -1424 -2016 -1424
WIRE -1680 -1424 -1776 -1424
WIRE -1600 -1424 -1600 -1472
WIRE -1600 -1424 -1680 -1424
WIRE -640 -1424 -640 -1712
WIRE -640 -1424 -688 -1424
WIRE -2096 -1408 -2096 -1536
WIRE -2096 -1408 -2144 -1408
WIRE 96 -1408 96 -2240
WIRE 240 -1408 96 -1408
WIRE -4224 -1392 -4224 -1424
WIRE -4160 -1392 -4160 -1552
WIRE -4080 -1392 -4080 -1488
WIRE -4080 -1392 -4160 -1392
WIRE -3808 -1392 -3808 -1424
WIRE -3344 -1392 -3344 -1424
WIRE -3280 -1392 -3280 -1552
WIRE -3200 -1392 -3200 -1488
WIRE -3200 -1392 -3280 -1392
WIRE -2928 -1392 -2928 -1424
WIRE -944 -1392 -944 -1456
WIRE -912 -1392 -912 -1408
WIRE -912 -1392 -944 -1392
WIRE -832 -1392 -912 -1392
WIRE -800 -1392 -800 -1456
WIRE -800 -1392 -832 -1392
WIRE -736 -1392 -736 -1408
WIRE -736 -1392 -800 -1392
WIRE -5296 -1376 -5344 -1376
WIRE -5120 -1376 -5168 -1376
WIRE -4000 -1376 -4000 -1408
WIRE -3904 -1376 -3904 -1536
WIRE -3904 -1376 -4000 -1376
WIRE -3120 -1376 -3120 -1408
WIRE -3024 -1376 -3024 -1536
WIRE -3024 -1376 -3120 -1376
WIRE -2288 -1376 -2288 -1424
WIRE -1680 -1376 -1728 -1376
WIRE -416 -1376 -416 -1968
WIRE -368 -1376 -416 -1376
WIRE -320 -1376 -368 -1376
WIRE 64 -1376 64 -2224
WIRE 160 -1376 64 -1376
WIRE 240 -1376 240 -1408
WIRE 240 -1376 160 -1376
WIRE -2144 -1360 -2144 -1408
WIRE -2096 -1360 -2144 -1360
WIRE 416 -1360 240 -1360
WIRE -5248 -1344 -5248 -1440
WIRE -5040 -1344 -5040 -1520
WIRE -5040 -1344 -5072 -1344
WIRE -1520 -1344 -1520 -1488
WIRE -1520 -1344 -1632 -1344
WIRE -832 -1344 -832 -1392
WIRE 32 -1344 32 -2192
WIRE 240 -1344 240 -1360
WIRE 240 -1344 32 -1344
WIRE -4000 -1328 -4000 -1376
WIRE -3120 -1328 -3120 -1376
WIRE -2016 -1328 -2016 -1424
WIRE -2016 -1328 -2048 -1328
WIRE -368 -1328 -368 -1376
WIRE -320 -1328 -368 -1328
WIRE 416 -1328 416 -1360
WIRE -5344 -1312 -5344 -1376
WIRE -5296 -1312 -5296 -1328
WIRE -5296 -1312 -5344 -1312
WIRE -5200 -1312 -5296 -1312
WIRE -5168 -1312 -5168 -1376
WIRE -5168 -1312 -5200 -1312
WIRE -5120 -1312 -5120 -1328
WIRE -5120 -1312 -5168 -1312
WIRE -4080 -1312 -4080 -1392
WIRE -4048 -1312 -4080 -1312
WIRE -3200 -1312 -3200 -1392
WIRE -3168 -1312 -3200 -1312
WIRE -864 -1312 -864 -1424
WIRE -720 -1312 -864 -1312
WIRE -624 -1312 -624 -1568
WIRE -624 -1312 -720 -1312
WIRE 0 -1312 0 -2160
WIRE 160 -1312 160 -1376
WIRE 160 -1312 0 -1312
WIRE 240 -1312 160 -1312
WIRE -2160 -1296 -2400 -1296
WIRE -224 -1296 -224 -1440
WIRE -224 -1296 -272 -1296
WIRE 160 -1296 160 -1312
WIRE -5200 -1280 -5200 -1312
WIRE -3968 -1280 -4000 -1280
WIRE -3088 -1280 -3120 -1280
WIRE -2160 -1280 -2160 -1296
WIRE -2096 -1280 -2096 -1312
WIRE -2096 -1280 -2160 -1280
WIRE -896 -1280 -992 -1280
WIRE -832 -1280 -896 -1280
WIRE -608 -1280 -608 -1968
WIRE -608 -1280 -832 -1280
WIRE -2096 -1248 -2096 -1280
WIRE -1680 -1248 -1680 -1328
WIRE -832 -1248 -832 -1280
WIRE -320 -1248 -320 -1280
WIRE -320 -1248 -400 -1248
WIRE -3968 -1232 -3968 -1280
WIRE -3968 -1232 -4000 -1232
WIRE -3088 -1232 -3088 -1280
WIRE -3088 -1232 -3120 -1232
WIRE -2624 -1216 -2624 -1504
WIRE -2320 -1216 -2624 -1216
WIRE -320 -1216 -320 -1248
WIRE 336 -1216 208 -1216
WIRE 416 -1216 416 -1248
WIRE -4000 -1200 -4000 -1232
WIRE -3120 -1200 -3120 -1232
WIRE -2096 -1200 -2128 -1200
WIRE -1728 -1200 -1728 -1376
WIRE -1680 -1200 -1728 -1200
WIRE -896 -1200 -896 -1280
WIRE -832 -1200 -896 -1200
WIRE -224 -1200 -224 -1296
WIRE -160 -1200 -224 -1200
WIRE -3456 -1184 -3456 -1552
WIRE -3456 -1184 -3936 -1184
WIRE -1568 -1184 -1568 -1456
WIRE -1216 -1184 -1568 -1184
WIRE -3936 -1168 -3936 -1184
WIRE -3936 -1168 -4464 -1168
WIRE -3552 -1168 -3552 -1536
WIRE -2608 -1168 -3552 -1168
WIRE -2016 -1168 -2016 -1328
WIRE -2016 -1168 -2048 -1168
WIRE -1568 -1168 -1568 -1184
WIRE -1568 -1168 -1632 -1168
WIRE -640 -1168 -784 -1168
WIRE -464 -1168 -464 -1680
WIRE -464 -1168 -640 -1168
WIRE -320 -1168 -352 -1168
WIRE -128 -1168 -128 -1680
WIRE 0 -1168 -128 -1168
WIRE 240 -1168 0 -1168
WIRE 336 -1168 336 -1216
WIRE -5136 -1152 -5312 -1152
WIRE -5104 -1152 -5136 -1152
WIRE -3712 -1152 -3712 -1376
WIRE -2832 -1152 -2832 -1376
WIRE -2832 -1152 -3712 -1152
WIRE -2400 -1152 -2400 -1296
WIRE -2400 -1152 -2832 -1152
WIRE -2128 -1136 -2128 -1200
WIRE -2096 -1136 -2096 -1152
WIRE -2096 -1136 -2128 -1136
WIRE -224 -1136 -224 -1200
WIRE -224 -1136 -272 -1136
WIRE -160 -1136 -160 -1200
WIRE 208 -1136 208 -1216
WIRE 208 -1136 -160 -1136
WIRE 240 -1136 208 -1136
WIRE -5312 -1120 -5312 -1152
WIRE -1728 -1120 -1728 -1200
WIRE -1680 -1120 -1680 -1152
WIRE -1680 -1120 -1728 -1120
WIRE -2736 -1104 -3616 -1104
WIRE -2432 -1104 -2432 -1648
WIRE -2432 -1104 -2736 -1104
WIRE -2096 -1104 -2096 -1136
WIRE -1680 -1104 -1680 -1120
WIRE -832 -1104 -832 -1152
WIRE -352 -1104 -352 -1168
WIRE -320 -1104 -320 -1120
WIRE -320 -1104 -352 -1104
WIRE -4064 -1072 -4352 -1072
WIRE -4000 -1072 -4064 -1072
WIRE -3728 -1072 -4000 -1072
WIRE -3184 -1072 -3472 -1072
WIRE -3120 -1072 -3184 -1072
WIRE -2848 -1072 -3120 -1072
WIRE -320 -1072 -320 -1104
WIRE -5104 -1056 -5104 -1152
WIRE -2320 -1056 -2320 -1216
WIRE -1936 -1056 -2320 -1056
WIRE -896 -1056 -896 -1200
WIRE -832 -1056 -896 -1056
WIRE 336 -1056 336 -1088
WIRE -2176 -1024 -2176 -1536
WIRE -2144 -1024 -2176 -1024
WIRE -2096 -1024 -2144 -1024
WIRE -1952 -1024 -2096 -1024
WIRE -1888 -1024 -1952 -1024
WIRE -1840 -1024 -1888 -1024
WIRE -720 -1024 -720 -1312
WIRE -720 -1024 -784 -1024
WIRE -608 -1024 -720 -1024
WIRE -5136 -1008 -5136 -1152
WIRE -5104 -1008 -5136 -1008
WIRE -5312 -992 -5312 -1040
WIRE -4000 -992 -4000 -1072
WIRE -3120 -992 -3120 -1072
WIRE -5008 -976 -5056 -976
WIRE -4928 -976 -4928 -2368
WIRE -4928 -976 -5008 -976
WIRE -2144 -976 -2144 -1024
WIRE -2096 -976 -2144 -976
WIRE -1888 -976 -1888 -1024
WIRE -1840 -976 -1888 -976
WIRE -912 -976 -976 -976
WIRE -832 -976 -832 -1008
WIRE -832 -976 -912 -976
WIRE -736 -976 -832 -976
WIRE 240 -976 -256 -976
WIRE 272 -976 240 -976
WIRE -912 -960 -912 -976
WIRE -736 -960 -736 -976
WIRE 240 -960 240 -976
WIRE 800 -960 240 -960
WIRE -4352 -944 -4352 -992
WIRE -4064 -944 -4064 -1072
WIRE -4000 -944 -4064 -944
WIRE -3472 -944 -3472 -992
WIRE -3184 -944 -3184 -1072
WIRE -3120 -944 -3184 -944
WIRE -2016 -944 -2048 -944
WIRE -1760 -944 -1792 -944
WIRE -1088 -944 -1088 -2368
WIRE -976 -944 -976 -976
WIRE -976 -944 -1088 -944
WIRE 176 -944 -160 -944
WIRE 272 -944 176 -944
WIRE 800 -944 800 -960
WIRE -5104 -912 -5104 -960
WIRE -3920 -912 -3952 -912
WIRE -3040 -912 -3072 -912
WIRE -912 -912 -944 -912
WIRE -736 -912 -800 -912
WIRE -2096 -896 -2096 -928
WIRE -2096 -896 -2160 -896
WIRE -1840 -896 -1840 -928
WIRE -1840 -896 -1904 -896
WIRE -640 -880 -640 -1168
WIRE -640 -880 -688 -880
WIRE -5136 -864 -5136 -1008
WIRE -5104 -864 -5136 -864
WIRE -4000 -864 -4000 -896
WIRE -4000 -864 -4128 -864
WIRE -3120 -864 -3120 -896
WIRE -3120 -864 -3248 -864
WIRE -2608 -864 -2608 -1168
WIRE -2160 -864 -2160 -896
WIRE -2160 -864 -2608 -864
WIRE -2096 -864 -2096 -896
WIRE -2016 -864 -2016 -944
WIRE -1984 -864 -2016 -864
WIRE -1936 -864 -1936 -1056
WIRE -1904 -864 -1904 -896
WIRE -1904 -864 -1936 -864
WIRE -1840 -864 -1840 -896
WIRE -1760 -864 -1760 -944
WIRE -1376 -864 -1376 -2160
WIRE -1376 -864 -1760 -864
WIRE 0 -864 0 -1168
WIRE 176 -864 176 -944
WIRE 704 -864 176 -864
WIRE -944 -848 -944 -912
WIRE -912 -848 -912 -864
WIRE -912 -848 -944 -848
WIRE -832 -848 -912 -848
WIRE -800 -848 -800 -912
WIRE -800 -848 -832 -848
WIRE -736 -848 -736 -864
WIRE -736 -848 -800 -848
WIRE 704 -848 704 -864
WIRE -4944 -832 -5056 -832
WIRE -3920 -832 -3920 -912
WIRE -3872 -832 -3920 -832
WIRE -3040 -832 -3040 -912
WIRE -2992 -832 -3040 -832
WIRE 800 -832 800 -864
WIRE -4000 -816 -4000 -864
WIRE -3120 -816 -3120 -864
WIRE -2096 -816 -2128 -816
WIRE -1840 -816 -1872 -816
WIRE -832 -800 -832 -848
WIRE -5408 -784 -6256 -784
WIRE -5200 -784 -5408 -784
WIRE -5104 -784 -5104 -816
WIRE -5104 -784 -5200 -784
WIRE -5024 -784 -5104 -784
WIRE -2016 -784 -2016 -864
WIRE -2016 -784 -2048 -784
WIRE -1760 -784 -1760 -864
WIRE -1760 -784 -1792 -784
WIRE -4000 -768 -4032 -768
WIRE -3616 -768 -3616 -1104
WIRE -3120 -768 -3152 -768
WIRE -2736 -768 -2736 -1104
WIRE -864 -768 -864 -880
WIRE -608 -768 -608 -1024
WIRE -608 -768 -864 -768
WIRE -5008 -752 -5008 -976
WIRE -5008 -752 -5152 -752
WIRE -2128 -752 -2128 -816
WIRE -2096 -752 -2096 -768
WIRE -2096 -752 -2128 -752
WIRE -1872 -752 -1872 -816
WIRE -1840 -752 -1840 -768
WIRE -1840 -752 -1872 -752
WIRE 0 -752 0 -784
WIRE -5200 -736 -5200 -784
WIRE -5024 -736 -5024 -784
WIRE -3920 -736 -3920 -832
WIRE -3920 -736 -3952 -736
WIRE -3040 -736 -3040 -832
WIRE -3040 -736 -3072 -736
WIRE 704 -736 704 -768
WIRE 1248 -736 976 -736
WIRE -4944 -720 -4944 -832
WIRE -4544 -720 -4544 -1520
WIRE -4544 -720 -4944 -720
WIRE -2096 -720 -2096 -752
WIRE -1840 -720 -1840 -752
WIRE 1024 -720 832 -720
WIRE 1120 -720 1024 -720
WIRE -4032 -704 -4032 -768
WIRE -4000 -704 -4000 -720
WIRE -4000 -704 -4032 -704
WIRE -3152 -704 -3152 -768
WIRE -3120 -704 -3120 -720
WIRE -3120 -704 -3152 -704
WIRE 496 -704 272 -704
WIRE 1248 -704 1248 -736
WIRE -5808 -688 -6448 -688
WIRE -5632 -688 -5808 -688
WIRE -5600 -688 -5632 -688
WIRE -5344 -688 -5600 -688
WIRE -5200 -688 -5248 -688
WIRE -5024 -688 -5072 -688
WIRE -4000 -688 -4000 -704
WIRE -3728 -688 -3728 -1072
WIRE -3648 -688 -3648 -720
WIRE -3648 -688 -3728 -688
WIRE -3120 -688 -3120 -704
WIRE -2848 -688 -2848 -1072
WIRE -2768 -688 -2768 -720
WIRE -2768 -688 -2848 -688
WIRE -992 -688 -992 -1280
WIRE -864 -688 -992 -688
WIRE -800 -688 -864 -688
WIRE 496 -688 496 -704
WIRE 624 -688 496 -688
WIRE 1008 -688 864 -688
WIRE 1024 -688 1024 -720
WIRE 1024 -688 1008 -688
WIRE -1984 -672 -1984 -864
WIRE -1408 -672 -1408 -2192
WIRE -1408 -672 -1984 -672
WIRE 496 -672 320 -672
WIRE 976 -672 976 -736
WIRE 976 -672 896 -672
WIRE 1120 -672 1120 -720
WIRE -5808 -656 -5808 -688
WIRE -5152 -656 -5152 -752
WIRE -4944 -656 -4944 -720
WIRE -4944 -656 -4976 -656
WIRE -4192 -656 -4304 -656
WIRE -4128 -656 -4128 -864
WIRE -4128 -656 -4192 -656
WIRE -3312 -656 -3424 -656
WIRE -3248 -656 -3248 -864
WIRE -3248 -656 -3312 -656
WIRE -800 -656 -800 -688
WIRE -4064 -640 -4064 -944
WIRE -3936 -640 -4064 -640
WIRE -3872 -640 -3872 -832
WIRE -3776 -640 -3872 -640
WIRE -3696 -640 -3696 -720
WIRE -3696 -640 -3776 -640
WIRE -3184 -640 -3184 -944
WIRE -3056 -640 -3184 -640
WIRE -2992 -640 -2992 -832
WIRE -2896 -640 -2992 -640
WIRE -2816 -640 -2816 -720
WIRE -2816 -640 -2896 -640
WIRE -2720 -640 -2720 -720
WIRE -1936 -640 -2720 -640
WIRE 496 -640 496 -672
WIRE 496 -640 384 -640
WIRE 1008 -640 1008 -688
WIRE 1008 -640 928 -640
WIRE -6448 -624 -6448 -688
WIRE -6448 -624 -6480 -624
WIRE -6192 -624 -6448 -624
WIRE -5248 -624 -5248 -688
WIRE -5200 -624 -5200 -640
WIRE -5200 -624 -5248 -624
WIRE -5104 -624 -5200 -624
WIRE -5072 -624 -5072 -688
WIRE -5072 -624 -5104 -624
WIRE -5024 -624 -5024 -640
WIRE -5024 -624 -5072 -624
WIRE -3600 -624 -3600 -720
WIRE -3504 -624 -3600 -624
WIRE -4064 -608 -4064 -640
WIRE -3968 -608 -4064 -608
WIRE -3632 -608 -3648 -608
WIRE -3184 -608 -3184 -640
WIRE -3088 -608 -3184 -608
WIRE -2752 -608 -2768 -608
WIRE -2096 -608 -2144 -608
WIRE -1952 -608 -1952 -1024
WIRE -1952 -608 -2096 -608
WIRE -1888 -608 -1952 -608
WIRE -1840 -608 -1888 -608
WIRE -864 -608 -864 -688
WIRE -800 -608 -864 -608
WIRE 496 -608 496 -640
WIRE 496 -608 448 -608
WIRE -5600 -592 -5600 -688
WIRE -5104 -592 -5104 -624
WIRE -4192 -592 -4192 -656
WIRE -4016 -592 -4048 -592
WIRE -3776 -592 -3776 -640
WIRE -3632 -592 -3632 -608
WIRE -3312 -592 -3312 -656
WIRE -3136 -592 -3168 -592
WIRE -2896 -592 -2896 -640
WIRE -2752 -592 -2752 -608
WIRE 624 -592 624 -688
WIRE 1248 -592 1248 -624
WIRE -6448 -576 -6448 -624
WIRE -608 -576 -752 -576
WIRE -544 -576 -544 -1712
WIRE -544 -576 -608 -576
WIRE -3936 -560 -3936 -640
WIRE -3936 -560 -3968 -560
WIRE -3056 -560 -3056 -640
WIRE -3056 -560 -3088 -560
WIRE -2144 -560 -2144 -608
WIRE -2096 -560 -2144 -560
WIRE -1888 -560 -1888 -608
WIRE -1840 -560 -1888 -560
WIRE 496 -560 496 -608
WIRE 1120 -560 1120 -592
WIRE -5632 -544 -5632 -688
WIRE -5600 -544 -5632 -544
WIRE -5344 -544 -5344 -688
WIRE -5248 -544 -5344 -544
WIRE -5216 -544 -5248 -544
WIRE -6480 -528 -6480 -624
WIRE -6448 -528 -6480 -528
WIRE -6192 -528 -6192 -624
WIRE -6096 -528 -6192 -528
WIRE -6064 -528 -6096 -528
WIRE -5808 -528 -5808 -576
WIRE -3696 -528 -3696 -640
WIRE -3648 -528 -3648 -608
WIRE -3600 -528 -3600 -624
WIRE -2816 -528 -2816 -640
WIRE -2768 -528 -2768 -608
WIRE -2720 -528 -2720 -640
WIRE -2016 -528 -2048 -528
WIRE -1760 -528 -1792 -528
WIRE -5504 -512 -5552 -512
WIRE -5216 -512 -5216 -544
WIRE -800 -512 -800 -560
WIRE -6352 -496 -6400 -496
WIRE -6064 -496 -6064 -528
WIRE -4192 -496 -4192 -528
WIRE -4128 -496 -4128 -656
WIRE -4048 -496 -4048 -592
WIRE -4048 -496 -4128 -496
WIRE -3776 -496 -3776 -528
WIRE -3312 -496 -3312 -528
WIRE -3248 -496 -3248 -656
WIRE -3168 -496 -3168 -592
WIRE -3168 -496 -3248 -496
WIRE -2896 -496 -2896 -528
WIRE -3968 -480 -3968 -512
WIRE -3872 -480 -3872 -640
WIRE -3872 -480 -3968 -480
WIRE -3088 -480 -3088 -512
WIRE -2992 -480 -2992 -640
WIRE -2992 -480 -3088 -480
WIRE -2096 -480 -2096 -512
WIRE -2096 -480 -2160 -480
WIRE -1936 -480 -1936 -640
WIRE -1840 -480 -1840 -512
WIRE -1840 -480 -1936 -480
WIRE 624 -480 624 -512
WIRE -5248 -464 -5248 -544
WIRE -5216 -464 -5248 -464
WIRE -2016 -464 -2016 -528
WIRE -1968 -464 -2016 -464
WIRE -864 -464 -864 -608
WIRE -800 -464 -864 -464
WIRE -6096 -448 -6096 -528
WIRE -6064 -448 -6096 -448
WIRE -5600 -448 -5600 -496
WIRE -2160 -448 -2160 -480
WIRE -2160 -448 -2304 -448
WIRE -2096 -448 -2096 -480
WIRE -1840 -448 -1840 -480
WIRE -1760 -448 -1760 -528
WIRE -1424 -448 -1424 -2224
WIRE -1424 -448 -1760 -448
WIRE 496 -448 496 -480
WIRE -6448 -432 -6448 -480
WIRE -5504 -432 -5504 -512
WIRE -5408 -432 -5408 -784
WIRE -5408 -432 -5504 -432
WIRE -5136 -432 -5168 -432
WIRE -3968 -432 -3968 -480
WIRE -3088 -432 -3088 -480
WIRE -592 -432 -752 -432
WIRE -400 -432 -400 -1248
WIRE -400 -432 -592 -432
WIRE -6352 -416 -6352 -496
WIRE -6256 -416 -6256 -784
WIRE -6256 -416 -6352 -416
WIRE -5984 -416 -6016 -416
WIRE -4048 -416 -4048 -496
WIRE -4016 -416 -4048 -416
WIRE -3168 -416 -3168 -496
WIRE -3136 -416 -3168 -416
WIRE -5632 -400 -5632 -544
WIRE -5600 -400 -5632 -400
WIRE -2096 -400 -2128 -400
WIRE -1840 -400 -1872 -400
WIRE -6480 -384 -6480 -528
WIRE -6448 -384 -6480 -384
WIRE -5216 -384 -5216 -416
WIRE -5216 -384 -5312 -384
WIRE -3936 -384 -3968 -384
WIRE -3056 -384 -3088 -384
WIRE -880 -384 -944 -384
WIRE -800 -384 -800 -416
WIRE -800 -384 -880 -384
WIRE -704 -384 -800 -384
WIRE -6064 -368 -6064 -400
WIRE -6064 -368 -6160 -368
WIRE -5440 -368 -5552 -368
WIRE -5136 -368 -5136 -432
WIRE -4464 -368 -4464 -1168
WIRE -4464 -368 -5136 -368
WIRE -2016 -368 -2016 -464
WIRE -2016 -368 -2048 -368
WIRE -1760 -368 -1760 -448
WIRE -1760 -368 -1792 -368
WIRE -880 -368 -880 -384
WIRE -704 -368 -704 -384
WIRE -6288 -352 -6400 -352
WIRE -5216 -352 -5216 -384
WIRE -1152 -352 -1152 -2320
WIRE -944 -352 -944 -384
WIRE -944 -352 -1152 -352
WIRE -6064 -336 -6064 -368
WIRE -5984 -336 -5984 -416
WIRE -5904 -336 -5984 -336
WIRE -3936 -336 -3936 -384
WIRE -3936 -336 -3968 -336
WIRE -3056 -336 -3056 -384
WIRE -3056 -336 -3088 -336
WIRE -2128 -336 -2128 -400
WIRE -2096 -336 -2096 -352
WIRE -2096 -336 -2128 -336
WIRE -1872 -336 -1872 -400
WIRE -1840 -336 -1840 -352
WIRE -1840 -336 -1872 -336
WIRE -5696 -320 -5840 -320
WIRE -5600 -320 -5600 -352
WIRE -5600 -320 -5696 -320
WIRE -5520 -320 -5600 -320
WIRE -880 -320 -912 -320
WIRE -704 -320 -768 -320
WIRE -6544 -304 -7088 -304
WIRE -6448 -304 -6448 -336
WIRE -6448 -304 -6544 -304
WIRE -6368 -304 -6448 -304
WIRE -5440 -304 -5440 -368
WIRE -5312 -304 -5312 -384
WIRE -5312 -304 -5440 -304
WIRE -5216 -304 -5248 -304
WIRE -3968 -304 -3968 -336
WIRE -3088 -304 -3088 -336
WIRE -2096 -304 -2096 -336
WIRE -1840 -304 -1840 -336
WIRE -6288 -288 -6288 -352
WIRE -6160 -288 -6160 -368
WIRE -6160 -288 -6288 -288
WIRE -6064 -288 -6096 -288
WIRE -5504 -288 -5504 -432
WIRE -5504 -288 -5648 -288
WIRE -3504 -288 -3504 -624
WIRE -2304 -288 -2304 -448
WIRE -2304 -288 -3504 -288
WIRE -608 -288 -608 -576
WIRE -608 -288 -656 -288
WIRE -6352 -272 -6352 -416
WIRE -6352 -272 -6496 -272
WIRE -5696 -272 -5696 -320
WIRE -5520 -272 -5520 -320
WIRE -5136 -272 -5136 -368
WIRE -5136 -272 -5168 -272
WIRE -6544 -256 -6544 -304
WIRE -6368 -256 -6368 -304
WIRE -5984 -256 -5984 -336
WIRE -5984 -256 -6016 -256
WIRE -3680 -256 -3680 -480
WIRE -2800 -256 -2800 -480
WIRE -2800 -256 -3680 -256
WIRE -2400 -256 -2400 -1152
WIRE -2400 -256 -2800 -256
WIRE -912 -256 -912 -320
WIRE -880 -256 -880 -272
WIRE -880 -256 -912 -256
WIRE -800 -256 -880 -256
WIRE -768 -256 -768 -320
WIRE -768 -256 -800 -256
WIRE -704 -256 -704 -272
WIRE -704 -256 -768 -256
WIRE -5248 -240 -5248 -304
WIRE -5216 -240 -5216 -256
WIRE -5216 -240 -5248 -240
WIRE -1968 -240 -1968 -464
WIRE -1440 -240 -1440 -2240
WIRE -1440 -240 -1968 -240
WIRE -6096 -224 -6096 -288
WIRE -6064 -224 -6064 -240
WIRE -6064 -224 -6096 -224
WIRE -5696 -224 -5744 -224
WIRE -5520 -224 -5568 -224
WIRE -5216 -224 -5216 -240
WIRE -6544 -208 -6592 -208
WIRE -6368 -208 -6416 -208
WIRE -6064 -208 -6064 -224
WIRE -800 -208 -800 -256
WIRE -5648 -192 -5648 -288
WIRE -5440 -192 -5440 -304
WIRE -5440 -192 -5472 -192
WIRE -6496 -176 -6496 -272
WIRE -6288 -176 -6288 -288
WIRE -6288 -176 -6320 -176
WIRE -832 -176 -832 -288
WIRE -592 -176 -592 -432
WIRE -592 -176 -832 -176
WIRE -5744 -160 -5744 -224
WIRE -5696 -160 -5696 -176
WIRE -5696 -160 -5744 -160
WIRE -5600 -160 -5696 -160
WIRE -5568 -160 -5568 -224
WIRE -5568 -160 -5600 -160
WIRE -5520 -160 -5520 -176
WIRE -5520 -160 -5568 -160
WIRE -6592 -144 -6592 -208
WIRE -6544 -144 -6544 -160
WIRE -6544 -144 -6592 -144
WIRE -6448 -144 -6544 -144
WIRE -6416 -144 -6416 -208
WIRE -6416 -144 -6448 -144
WIRE -6368 -144 -6368 -160
WIRE -6368 -144 -6416 -144
WIRE -5600 -128 -5600 -160
WIRE -6448 -112 -6448 -144
WIRE -992 -112 -992 -688
WIRE -864 -112 -992 -112
WIRE -800 -112 -864 -112
WIRE -5904 -96 -5904 -336
WIRE -3424 -96 -3424 -656
WIRE -3424 -96 -5904 -96
WIRE -5840 -80 -5840 -320
WIRE -5840 -80 -7024 -80
WIRE -800 -80 -800 -112
WIRE -5808 -64 -5984 -64
WIRE -5632 -64 -5808 -64
WIRE -5600 -64 -5632 -64
WIRE -5344 -64 -5600 -64
WIRE -6448 -48 -6480 -48
WIRE -6192 -48 -6448 -48
WIRE -5984 -48 -5984 -64
WIRE -5984 -48 -6192 -48
WIRE -5808 -32 -5808 -64
WIRE -864 -32 -864 -112
WIRE -800 -32 -864 -32
WIRE -6448 0 -6448 -48
WIRE -608 0 -752 0
WIRE -464 0 -464 -1168
WIRE -464 0 -608 0
WIRE -5600 32 -5600 -64
WIRE -6480 48 -6480 -48
WIRE -6448 48 -6480 48
WIRE -6192 48 -6192 -48
WIRE -6096 48 -6192 48
WIRE -6064 48 -6096 48
WIRE -800 64 -800 16
WIRE -6352 80 -6400 80
WIRE -6064 80 -6064 48
WIRE -5632 80 -5632 -64
WIRE -5600 80 -5632 80
WIRE -5344 80 -5344 -64
WIRE -5248 80 -5344 80
WIRE -5216 80 -5248 80
WIRE -4304 80 -4304 -656
WIRE -4304 80 -4528 80
WIRE -5808 96 -5808 48
WIRE -5504 112 -5552 112
WIRE -5216 112 -5216 80
WIRE -2832 112 -3712 112
WIRE -2496 112 -2832 112
WIRE -864 112 -864 -32
WIRE -800 112 -864 112
WIRE -6096 128 -6096 48
WIRE -6064 128 -6096 128
WIRE -6448 144 -6448 96
WIRE -592 144 -752 144
WIRE -400 144 -400 -432
WIRE -400 144 -592 144
WIRE -6352 160 -6352 80
WIRE -6256 160 -6256 -416
WIRE -6256 160 -6352 160
WIRE -5984 160 -6016 160
WIRE -5248 160 -5248 80
WIRE -5216 160 -5248 160
WIRE -5600 176 -5600 128
WIRE -4160 176 -4448 176
WIRE -4096 176 -4160 176
WIRE -3824 176 -4096 176
WIRE -3280 176 -3568 176
WIRE -3216 176 -3280 176
WIRE -2944 176 -3216 176
WIRE -6480 192 -6480 48
WIRE -6448 192 -6480 192
WIRE -5504 192 -5504 112
WIRE -5408 192 -5408 -432
WIRE -5408 192 -5504 192
WIRE -5136 192 -5168 192
WIRE -880 192 -944 192
WIRE -800 192 -800 160
WIRE -800 192 -880 192
WIRE -704 192 -800 192
WIRE -6064 208 -6064 176
WIRE -6064 208 -6160 208
WIRE -880 208 -880 192
WIRE -704 208 -704 192
WIRE -6288 224 -6400 224
WIRE -5632 224 -5632 80
WIRE -5600 224 -5632 224
WIRE -944 224 -944 192
WIRE -944 224 -1152 224
WIRE -6064 240 -6064 208
WIRE -5984 240 -5984 160
WIRE -5904 240 -5984 240
WIRE -5216 240 -5216 208
WIRE -5216 240 -5312 240
WIRE -5440 256 -5552 256
WIRE -4096 256 -4096 176
WIRE -3216 256 -3216 176
WIRE -880 256 -912 256
WIRE -704 256 -768 256
WIRE -6544 272 -7120 272
WIRE -6448 272 -6448 240
WIRE -6448 272 -6544 272
WIRE -6368 272 -6448 272
WIRE -5216 272 -5216 240
WIRE -6288 288 -6288 224
WIRE -6160 288 -6160 208
WIRE -6160 288 -6288 288
WIRE -6064 288 -6096 288
WIRE -5136 288 -5136 192
WIRE -4480 288 -4480 -1552
WIRE -4480 288 -5136 288
WIRE -608 288 -608 0
WIRE -608 288 -656 288
WIRE -6352 304 -6352 160
WIRE -6352 304 -6496 304
WIRE -5696 304 -5840 304
WIRE -5600 304 -5600 272
WIRE -5600 304 -5696 304
WIRE -5520 304 -5600 304
WIRE -4448 304 -4448 256
WIRE -4160 304 -4160 176
WIRE -4096 304 -4160 304
WIRE -3568 304 -3568 256
WIRE -3280 304 -3280 176
WIRE -3216 304 -3280 304
WIRE -6544 320 -6544 272
WIRE -6368 320 -6368 272
WIRE -5984 320 -5984 240
WIRE -5984 320 -6016 320
WIRE -5440 320 -5440 256
WIRE -5312 320 -5312 240
WIRE -5312 320 -5440 320
WIRE -5216 320 -5248 320
WIRE -912 320 -912 256
WIRE -880 320 -880 304
WIRE -880 320 -912 320
WIRE -800 320 -880 320
WIRE -768 320 -768 256
WIRE -768 320 -800 320
WIRE -704 320 -704 304
WIRE -704 320 -768 320
WIRE -5504 336 -5504 192
WIRE -5504 336 -5648 336
WIRE -4016 336 -4048 336
WIRE -3136 336 -3168 336
WIRE -6096 352 -6096 288
WIRE -6064 352 -6064 336
WIRE -6064 352 -6096 352
WIRE -5696 352 -5696 304
WIRE -5520 352 -5520 304
WIRE -5136 352 -5136 288
WIRE -5136 352 -5168 352
WIRE -6544 368 -6592 368
WIRE -6368 368 -6416 368
WIRE -6064 368 -6064 352
WIRE -800 368 -800 320
WIRE -5248 384 -5248 320
WIRE -5216 384 -5216 368
WIRE -5216 384 -5248 384
WIRE -4096 384 -4096 352
WIRE -4096 384 -4224 384
WIRE -3216 384 -3216 352
WIRE -3216 384 -3344 384
WIRE -6496 400 -6496 304
WIRE -6288 400 -6288 288
WIRE -6288 400 -6320 400
WIRE -5696 400 -5744 400
WIRE -5520 400 -5568 400
WIRE -5216 400 -5216 384
WIRE -832 400 -832 288
WIRE -592 400 -592 144
WIRE -592 400 -832 400
WIRE -4016 416 -4016 336
WIRE -3968 416 -4016 416
WIRE -3136 416 -3136 336
WIRE -3088 416 -3136 416
WIRE -6592 432 -6592 368
WIRE -6544 432 -6544 416
WIRE -6544 432 -6592 432
WIRE -6448 432 -6544 432
WIRE -6416 432 -6416 368
WIRE -6416 432 -6448 432
WIRE -6368 432 -6368 416
WIRE -6368 432 -6416 432
WIRE -5648 432 -5648 336
WIRE -5440 432 -5440 320
WIRE -5440 432 -5472 432
WIRE -4096 432 -4096 384
WIRE -3216 432 -3216 384
WIRE -6448 464 -6448 432
WIRE -5744 464 -5744 400
WIRE -5696 464 -5696 448
WIRE -5696 464 -5744 464
WIRE -5600 464 -5696 464
WIRE -5568 464 -5568 400
WIRE -5568 464 -5600 464
WIRE -5520 464 -5520 448
WIRE -5520 464 -5568 464
WIRE -4096 480 -4128 480
WIRE -3712 480 -3712 112
WIRE -3216 480 -3248 480
WIRE -2832 480 -2832 112
WIRE -5600 496 -5600 464
WIRE -4016 512 -4016 416
WIRE -4016 512 -4048 512
WIRE -3136 512 -3136 416
WIRE -3136 512 -3168 512
WIRE -2496 512 -2496 112
WIRE -2080 512 -2496 512
WIRE -5904 528 -5904 240
WIRE -4528 528 -4528 80
WIRE -4528 528 -5904 528
WIRE -4128 544 -4128 480
WIRE -4096 544 -4096 528
WIRE -4096 544 -4128 544
WIRE -3248 544 -3248 480
WIRE -3216 544 -3216 528
WIRE -3216 544 -3248 544
WIRE -5840 560 -5840 304
WIRE -5840 560 -7056 560
WIRE -4096 560 -4096 544
WIRE -3824 560 -3824 176
WIRE -3744 560 -3744 528
WIRE -3744 560 -3824 560
WIRE -3216 560 -3216 544
WIRE -2944 560 -2944 176
WIRE -2864 560 -2864 528
WIRE -2864 560 -2944 560
WIRE -1888 560 -2000 560
WIRE -1840 560 -1888 560
WIRE -1696 560 -1840 560
WIRE -1664 560 -1696 560
WIRE -1840 576 -1840 560
WIRE -1664 576 -1664 560
WIRE -4288 592 -4496 592
WIRE -4224 592 -4224 384
WIRE -4224 592 -4288 592
WIRE -3408 592 -3472 592
WIRE -3344 592 -3344 384
WIRE -3344 592 -3408 592
WIRE -5808 608 -6448 608
WIRE -5632 608 -5808 608
WIRE -5600 608 -5632 608